/PREP7
! ===== ICCAD2026 OIO3D GPU/EIC/aPIC transient (Coenen et al. TCPMT 2026 params) =====
MP,KXX,1,150.0 $ MP,KYY,1,150.0 $ MP,KZZ,1,150.0 $ MP,DENS,1,2330 $ MP,C,1,700
MP,KXX,2,5.0 $ MP,KYY,2,5.0 $ MP,KZZ,2,5.0 $ MP,DENS,2,2500 $ MP,C,2,800
MP,KXX,3,80.0 $ MP,KYY,3,80.0 $ MP,KZZ,3,80.0 $ MP,DENS,3,2300 $ MP,C,3,700
MP,KXX,4,2.55 $ MP,KYY,4,2.55 $ MP,KZZ,4,2.55 $ MP,DENS,4,2500 $ MP,C,4,800
ET,1,SOLID70
ESIZE,0.025/20
MP,KXX,5,400.0 $ MP,KYY,5,400.0 $ MP,KZZ,5,400.0 $ MP,DENS,5,8960 $ MP,C,5,385
BLOCK,0,0.025,0,0.025,-0.003,0.0 $ VSEL,S,LOC,Z,(-0.003+0.0)/2 $ VATT,5,,1 $ VMESH,ALL $ ALLSEL
BLOCK,0,0.025,0,0.025,0.0,0.0007 $ VSEL,S,LOC,Z,(0.0+0.0007)/2 $ VATT,1,,1 $ VMESH,ALL $ ALLSEL
BLOCK,0,0.025,0,0.025,0.0007,0.0007023999999999999 $ VSEL,S,LOC,Z,(0.0007+0.0007023999999999999)/2 $ VATT,2,,1 $ VMESH,ALL $ ALLSEL
BLOCK,0,0.025,0,0.025,0.0007023999999999999,0.0008024 $ VSEL,S,LOC,Z,(0.0007023999999999999+0.0008024)/2 $ VATT,1,,1 $ VMESH,ALL $ ALLSEL
BLOCK,0,0.025,0,0.025,0.0008024,0.0008047999999999999 $ VSEL,S,LOC,Z,(0.0008024+0.0008047999999999999)/2 $ VATT,2,,1 $ VMESH,ALL $ ALLSEL
BLOCK,0,0.025,0,0.025,0.0008047999999999999,0.0008548 $ VSEL,S,LOC,Z,(0.0008047999999999999+0.0008548)/2 $ VATT,3,,1 $ VMESH,ALL $ ALLSEL
BLOCK,0,0.025,0,0.025,0.0008548,0.0008571999999999999 $ VSEL,S,LOC,Z,(0.0008548+0.0008571999999999999)/2 $ VATT,4,,1 $ VMESH,ALL $ ALLSEL
BLOCK,0,0.025,0,0.025,0.0008571999999999999,0.0011572 $ VSEL,S,LOC,Z,(0.0008571999999999999+0.0011572)/2 $ VATT,1,,1 $ VMESH,ALL $ ALLSEL
ALLSEL $ NUMMRG,NODE,1e-9 $ NUMCMP,NODE
VOL_XPU=4.375000000000001e-07
ESEL,S,MAT,,1 $ ESEL,R,CENT,Z,(0.0007023999999999999+0.0008024)/2 $ BFE,ALL,HGEN,1,266.25/6.250000000000001e-08 $ ALLSEL
ESEL,S,MAT,,3 $ BFE,ALL,HGEN,1,70.625/3.1250000000000005e-08 $ ALLSEL
ASEL,S,LOC,Z,-0.003 $ SFA,ALL,,CONV,70000.0,45.0 $ ALLSEL
ASEL,S,LOC,Z,0.0011572 $ SFA,ALL,,CONV,16000.0000,45.0 $ ALLSEL
NMON=NODE(0.025/2,0.025/2,(0.0008047999999999999+0.0008548)/2)
FINISH

/SOLU
ANTYPE,TRANS
TRNOPT,FULL
OUTRES,ALL,ALL
TIMINT,OFF
ESEL,S,MAT,,1 $ ESEL,R,CENT,Z,(0.0+0.0007)/2 $ BFE,ALL,HGEN,1,84.0/4.375000000000001e-07 $ ALLSEL
TIME,1e-3 $ KBC,1 $ SOLVE
TIMINT,ON
ESEL,S,MAT,,1 $ ESEL,R,CENT,Z,(0.0+0.0007)/2 $ BFE,ALL,HGEN,1,84.0/4.375000000000001e-07 $ ALLSEL
TIME,0.030265517 $ KBC,1 $ AUTOTS,OFF $ DELTIM,0.001 $ SOLVE
ESEL,S,MAT,,1 $ ESEL,R,CENT,Z,(0.0+0.0007)/2 $ BFE,ALL,HGEN,1,700.0/4.375000000000001e-07 $ ALLSEL
TIME,0.042573483 $ KBC,1 $ AUTOTS,OFF $ DELTIM,0.001 $ SOLVE
ESEL,S,MAT,,1 $ ESEL,R,CENT,Z,(0.0+0.0007)/2 $ BFE,ALL,HGEN,1,140.0/4.375000000000001e-07 $ ALLSEL
TIME,0.042649874 $ KBC,1 $ AUTOTS,OFF $ DELTIM,1.25e-05 $ SOLVE
ESEL,S,MAT,,1 $ ESEL,R,CENT,Z,(0.0+0.0007)/2 $ BFE,ALL,HGEN,1,280.0/4.375000000000001e-07 $ ALLSEL
TIME,0.042713637 $ KBC,1 $ AUTOTS,OFF $ DELTIM,1.25e-05 $ SOLVE
ESEL,S,MAT,,1 $ ESEL,R,CENT,Z,(0.0+0.0007)/2 $ BFE,ALL,HGEN,1,84.0/4.375000000000001e-07 $ ALLSEL
TIME,0.047166503 $ KBC,1 $ AUTOTS,OFF $ DELTIM,0.00055660825 $ SOLVE
ESEL,S,MAT,,1 $ ESEL,R,CENT,Z,(0.0+0.0007)/2 $ BFE,ALL,HGEN,1,280.0/4.375000000000001e-07 $ ALLSEL
TIME,0.049250996 $ KBC,1 $ AUTOTS,OFF $ DELTIM,0.00026056162499999997 $ SOLVE
ESEL,S,MAT,,1 $ ESEL,R,CENT,Z,(0.0+0.0007)/2 $ BFE,ALL,HGEN,1,700.0/4.375000000000001e-07 $ ALLSEL
TIME,0.056006564 $ KBC,1 $ AUTOTS,OFF $ DELTIM,0.0008444460000000004 $ SOLVE
ESEL,S,MAT,,1 $ ESEL,R,CENT,Z,(0.0+0.0007)/2 $ BFE,ALL,HGEN,1,84.0/4.375000000000001e-07 $ ALLSEL
TIME,0.060464663 $ KBC,1 $ AUTOTS,OFF $ DELTIM,0.000557262375 $ SOLVE
ESEL,S,MAT,,1 $ ESEL,R,CENT,Z,(0.0+0.0007)/2 $ BFE,ALL,HGEN,1,140.0/4.375000000000001e-07 $ ALLSEL
TIME,0.060541056 $ KBC,1 $ AUTOTS,OFF $ DELTIM,1.25e-05 $ SOLVE
ESEL,S,MAT,,1 $ ESEL,R,CENT,Z,(0.0+0.0007)/2 $ BFE,ALL,HGEN,1,700.0/4.375000000000001e-07 $ ALLSEL
TIME,0.072849022 $ KBC,1 $ AUTOTS,OFF $ DELTIM,0.001 $ SOLVE
ESEL,S,MAT,,1 $ ESEL,R,CENT,Z,(0.0+0.0007)/2 $ BFE,ALL,HGEN,1,140.0/4.375000000000001e-07 $ ALLSEL
TIME,0.072925412 $ KBC,1 $ AUTOTS,OFF $ DELTIM,1.25e-05 $ SOLVE
ESEL,S,MAT,,1 $ ESEL,R,CENT,Z,(0.0+0.0007)/2 $ BFE,ALL,HGEN,1,280.0/4.375000000000001e-07 $ ALLSEL
TIME,0.072989176 $ KBC,1 $ AUTOTS,OFF $ DELTIM,1.25e-05 $ SOLVE
ESEL,S,MAT,,1 $ ESEL,R,CENT,Z,(0.0+0.0007)/2 $ BFE,ALL,HGEN,1,84.0/4.375000000000001e-07 $ ALLSEL
TIME,0.077442042 $ KBC,1 $ AUTOTS,OFF $ DELTIM,0.00055660825 $ SOLVE
ESEL,S,MAT,,1 $ ESEL,R,CENT,Z,(0.0+0.0007)/2 $ BFE,ALL,HGEN,1,280.0/4.375000000000001e-07 $ ALLSEL
TIME,0.079526535 $ KBC,1 $ AUTOTS,OFF $ DELTIM,0.0002605616249999991 $ SOLVE
ESEL,S,MAT,,1 $ ESEL,R,CENT,Z,(0.0+0.0007)/2 $ BFE,ALL,HGEN,1,700.0/4.375000000000001e-07 $ ALLSEL
TIME,0.086282103 $ KBC,1 $ AUTOTS,OFF $ DELTIM,0.0008444460000000004 $ SOLVE
ESEL,S,MAT,,1 $ ESEL,R,CENT,Z,(0.0+0.0007)/2 $ BFE,ALL,HGEN,1,84.0/4.375000000000001e-07 $ ALLSEL
TIME,0.090740201 $ KBC,1 $ AUTOTS,OFF $ DELTIM,0.0005572622500000009 $ SOLVE
ESEL,S,MAT,,1 $ ESEL,R,CENT,Z,(0.0+0.0007)/2 $ BFE,ALL,HGEN,1,140.0/4.375000000000001e-07 $ ALLSEL
TIME,0.090816595 $ KBC,1 $ AUTOTS,OFF $ DELTIM,1.25e-05 $ SOLVE
ESEL,S,MAT,,1 $ ESEL,R,CENT,Z,(0.0+0.0007)/2 $ BFE,ALL,HGEN,1,700.0/4.375000000000001e-07 $ ALLSEL
TIME,0.103124561 $ KBC,1 $ AUTOTS,OFF $ DELTIM,0.001 $ SOLVE
ESEL,S,MAT,,1 $ ESEL,R,CENT,Z,(0.0+0.0007)/2 $ BFE,ALL,HGEN,1,140.0/4.375000000000001e-07 $ ALLSEL
TIME,0.103200951 $ KBC,1 $ AUTOTS,OFF $ DELTIM,1.25e-05 $ SOLVE
ESEL,S,MAT,,1 $ ESEL,R,CENT,Z,(0.0+0.0007)/2 $ BFE,ALL,HGEN,1,280.0/4.375000000000001e-07 $ ALLSEL
TIME,0.103264715 $ KBC,1 $ AUTOTS,OFF $ DELTIM,1.25e-05 $ SOLVE
! ... 1460 like lines cut
FINISH

/POST26
NUMVAR,200
NSOL,2,NMON,TEMP
/OUTPUT,llama_pic_transient_symF1_i256_median_cp3cu_dt1ms,csv
PRVAR,2
/OUTPUT
FINISH
