/PREP7
! ===== ICCAD2026 OIO3D GPU/EIC/aPIC transient (Coenen et al. TCPMT 2026 params) =====
MP,KXX,1,150.0 $ MP,KYY,1,150.0 $ MP,KZZ,1,150.0 $ MP,DENS,1,2330 $ MP,C,1,700
MP,KXX,2,5.0 $ MP,KYY,2,5.0 $ MP,KZZ,2,5.0 $ MP,DENS,2,2500 $ MP,C,2,800
MP,KXX,3,80.0 $ MP,KYY,3,80.0 $ MP,KZZ,3,80.0 $ MP,DENS,3,2300 $ MP,C,3,700
MP,KXX,4,2.55 $ MP,KYY,4,2.55 $ MP,KZZ,4,2.55 $ MP,DENS,4,2500 $ MP,C,4,800
ET,1,SOLID70
ESIZE,0.025/20
MP,KXX,5,150.0 $ MP,KYY,5,150.0 $ MP,KZZ,5,150.0 $ MP,DENS,5,2330 $ MP,C,5,700
BLOCK,0,0.025,0,0.025,-0.001,0.0 $ VSEL,S,LOC,Z,(-0.001+0.0)/2 $ VATT,5,,1 $ VMESH,ALL $ ALLSEL
BLOCK,0,0.025,0,0.025,0.0,0.0007 $ VSEL,S,LOC,Z,(0.0+0.0007)/2 $ VATT,1,,1 $ VMESH,ALL $ ALLSEL
BLOCK,0,0.025,0,0.025,0.0007,0.0007023999999999999 $ VSEL,S,LOC,Z,(0.0007+0.0007023999999999999)/2 $ VATT,2,,1 $ VMESH,ALL $ ALLSEL
BLOCK,0,0.025,0,0.025,0.0007023999999999999,0.0008024 $ VSEL,S,LOC,Z,(0.0007023999999999999+0.0008024)/2 $ VATT,1,,1 $ VMESH,ALL $ ALLSEL
BLOCK,0,0.025,0,0.025,0.0008024,0.0008047999999999999 $ VSEL,S,LOC,Z,(0.0008024+0.0008047999999999999)/2 $ VATT,2,,1 $ VMESH,ALL $ ALLSEL
BLOCK,0,0.025,0,0.025,0.0008047999999999999,0.0008548 $ VSEL,S,LOC,Z,(0.0008047999999999999+0.0008548)/2 $ VATT,3,,1 $ VMESH,ALL $ ALLSEL
BLOCK,0,0.025,0,0.025,0.0008548,0.0008571999999999999 $ VSEL,S,LOC,Z,(0.0008548+0.0008571999999999999)/2 $ VATT,4,,1 $ VMESH,ALL $ ALLSEL
BLOCK,0,0.025,0,0.025,0.0008571999999999999,0.0011572 $ VSEL,S,LOC,Z,(0.0008571999999999999+0.0011572)/2 $ VATT,1,,1 $ VMESH,ALL $ ALLSEL
ALLSEL $ NUMMRG,NODE,1e-9 $ NUMCMP,NODE
VOL_XPU=4.375000000000001e-07
ESEL,S,MAT,,1 $ ESEL,R,CENT,Z,(0.0007023999999999999+0.0008024)/2 $ BFE,ALL,HGEN,1,266.25/6.250000000000001e-08 $ ALLSEL
ESEL,S,MAT,,3 $ BFE,ALL,HGEN,1,70.625/3.1250000000000005e-08 $ ALLSEL
ASEL,S,LOC,Z,-0.001 $ SFA,ALL,,CONV,70000.0,45.0 $ ALLSEL
ASEL,S,LOC,Z,0.0011572 $ SFA,ALL,,CONV,16000.0000,45.0 $ ALLSEL
NMON=NODE(0.025/2,0.025/2,(0.0008047999999999999+0.0008548)/2)
FINISH

/SOLU
ANTYPE,TRANS
TRNOPT,FULL
OUTRES,ALL,ALL
TIMINT,OFF
ESEL,S,MAT,,1 $ ESEL,R,CENT,Z,(0.0+0.0007)/2 $ BFE,ALL,HGEN,1,84.0/4.375000000000001e-07 $ ALLSEL
TIME,1e-3 $ KBC,1 $ SOLVE
TIMINT,ON
ESEL,S,MAT,,1 $ ESEL,R,CENT,Z,(0.0+0.0007)/2 $ BFE,ALL,HGEN,1,84.0/4.375000000000001e-07 $ ALLSEL
TIME,0.098408987 $ KBC,1 $ AUTOTS,OFF $ DELTIM,0.001 $ SOLVE
ESEL,S,MAT,,1 $ ESEL,R,CENT,Z,(0.0+0.0007)/2 $ BFE,ALL,HGEN,1,700.0/4.375000000000001e-07 $ ALLSEL
TIME,0.110716953 $ KBC,1 $ AUTOTS,OFF $ DELTIM,0.001 $ SOLVE
ESEL,S,MAT,,1 $ ESEL,R,CENT,Z,(0.0+0.0007)/2 $ BFE,ALL,HGEN,1,84.0/4.375000000000001e-07 $ ALLSEL
TIME,0.11071711 $ KBC,1 $ AUTOTS,OFF $ DELTIM,1.25e-05 $ SOLVE
ESEL,S,MAT,,1 $ ESEL,R,CENT,Z,(0.0+0.0007)/2 $ BFE,ALL,HGEN,1,140.0/4.375000000000001e-07 $ ALLSEL
TIME,0.110861315 $ KBC,1 $ AUTOTS,OFF $ DELTIM,1.8025625000001044e-05 $ SOLVE
ESEL,S,MAT,,1 $ ESEL,R,CENT,Z,(0.0+0.0007)/2 $ BFE,ALL,HGEN,1,84.0/4.375000000000001e-07 $ ALLSEL
TIME,0.110861472 $ KBC,1 $ AUTOTS,OFF $ DELTIM,1.25e-05 $ SOLVE
ESEL,S,MAT,,1 $ ESEL,R,CENT,Z,(0.0+0.0007)/2 $ BFE,ALL,HGEN,1,140.0/4.375000000000001e-07 $ ALLSEL
TIME,0.110864012 $ KBC,1 $ AUTOTS,OFF $ DELTIM,1.25e-05 $ SOLVE
ESEL,S,MAT,,1 $ ESEL,R,CENT,Z,(0.0+0.0007)/2 $ BFE,ALL,HGEN,1,84.0/4.375000000000001e-07 $ ALLSEL
TIME,0.110864169 $ KBC,1 $ AUTOTS,OFF $ DELTIM,1.25e-05 $ SOLVE
ESEL,S,MAT,,1 $ ESEL,R,CENT,Z,(0.0+0.0007)/2 $ BFE,ALL,HGEN,1,280.0/4.375000000000001e-07 $ ALLSEL
TIME,0.110902591 $ KBC,1 $ AUTOTS,OFF $ DELTIM,1.25e-05 $ SOLVE
ESEL,S,MAT,,1 $ ESEL,R,CENT,Z,(0.0+0.0007)/2 $ BFE,ALL,HGEN,1,84.0/4.375000000000001e-07 $ ALLSEL
TIME,0.110903748 $ KBC,1 $ AUTOTS,OFF $ DELTIM,1.25e-05 $ SOLVE
ESEL,S,MAT,,1 $ ESEL,R,CENT,Z,(0.0+0.0007)/2 $ BFE,ALL,HGEN,1,84.0/4.375000000000001e-07 $ ALLSEL
TIME,0.110903904 $ KBC,1 $ AUTOTS,OFF $ DELTIM,1.25e-05 $ SOLVE
ESEL,S,MAT,,1 $ ESEL,R,CENT,Z,(0.0+0.0007)/2 $ BFE,ALL,HGEN,1,280.0/4.375000000000001e-07 $ ALLSEL
TIME,0.110921008 $ KBC,1 $ AUTOTS,OFF $ DELTIM,1.25e-05 $ SOLVE
ESEL,S,MAT,,1 $ ESEL,R,CENT,Z,(0.0+0.0007)/2 $ BFE,ALL,HGEN,1,84.0/4.375000000000001e-07 $ ALLSEL
TIME,0.134004418 $ KBC,1 $ AUTOTS,OFF $ DELTIM,0.001 $ SOLVE
ESEL,S,MAT,,1 $ ESEL,R,CENT,Z,(0.0+0.0007)/2 $ BFE,ALL,HGEN,1,700.0/4.375000000000001e-07 $ ALLSEL
TIME,0.144844419 $ KBC,1 $ AUTOTS,OFF $ DELTIM,0.001 $ SOLVE
ESEL,S,MAT,,1 $ ESEL,R,CENT,Z,(0.0+0.0007)/2 $ BFE,ALL,HGEN,1,84.0/4.375000000000001e-07 $ ALLSEL
TIME,0.145628513 $ KBC,1 $ AUTOTS,OFF $ DELTIM,9.801174999999815e-05 $ SOLVE
ESEL,S,MAT,,1 $ ESEL,R,CENT,Z,(0.0+0.0007)/2 $ BFE,ALL,HGEN,1,700.0/4.375000000000001e-07 $ ALLSEL
TIME,0.155279902 $ KBC,1 $ AUTOTS,OFF $ DELTIM,0.001 $ SOLVE
ESEL,S,MAT,,1 $ ESEL,R,CENT,Z,(0.0+0.0007)/2 $ BFE,ALL,HGEN,1,84.0/4.375000000000001e-07 $ ALLSEL
TIME,0.1555046 $ KBC,1 $ AUTOTS,OFF $ DELTIM,2.8087249999999425e-05 $ SOLVE
ESEL,S,MAT,,1 $ ESEL,R,CENT,Z,(0.0+0.0007)/2 $ BFE,ALL,HGEN,1,700.0/4.375000000000001e-07 $ ALLSEL
TIME,0.168981778 $ KBC,1 $ AUTOTS,OFF $ DELTIM,0.001 $ SOLVE
ESEL,S,MAT,,1 $ ESEL,R,CENT,Z,(0.0+0.0007)/2 $ BFE,ALL,HGEN,1,84.0/4.375000000000001e-07 $ ALLSEL
TIME,0.190269737 $ KBC,1 $ AUTOTS,OFF $ DELTIM,0.001 $ SOLVE
ESEL,S,MAT,,1 $ ESEL,R,CENT,Z,(0.0+0.0007)/2 $ BFE,ALL,HGEN,1,84.0/4.375000000000001e-07 $ ALLSEL
TIME,0.190269894 $ KBC,1 $ AUTOTS,OFF $ DELTIM,1.25e-05 $ SOLVE
ESEL,S,MAT,,1 $ ESEL,R,CENT,Z,(0.0+0.0007)/2 $ BFE,ALL,HGEN,1,140.0/4.375000000000001e-07 $ ALLSEL
TIME,0.190414099 $ KBC,1 $ AUTOTS,OFF $ DELTIM,1.8025625000001044e-05 $ SOLVE
! ... 3560 like lines cut
FINISH

/POST26
NUMVAR,200
NSOL,2,NMON,TEMP
/OUTPUT,mixtral_pic_transient_symF1_i1800_median_cp1si_dt1ms,csv
PRVAR,2
/OUTPUT
FINISH
